[TITLE]
;;Project Title/Notes

[OPTIONS]
;;Option             Value
FLOW_UNITS           CMS
INFILTRATION         HORTON
FLOW_ROUTING         DYNWAVE
LINK_OFFSETS         DEPTH
MIN_SLOPE            0
ALLOW_PONDING        NO
SKIP_STEADY_STATE    NO

START_DATE           07/01/2017
START_TIME           14:00:00
REPORT_START_DATE    07/02/2017
REPORT_START_TIME    00:00:00
END_DATE             07/07/2017
END_TIME             00:00:00
SWEEP_START          01/01
SWEEP_END            12/31
DRY_DAYS             0
REPORT_STEP          00:01:00
WET_STEP             00:05:00
DRY_STEP             01:00:00
ROUTING_STEP         00:00:02 

INERTIAL_DAMPING     NONE
NORMAL_FLOW_LIMITED  BOTH
FORCE_MAIN_EQUATION  H-W
VARIABLE_STEP        1.0
LENGTHENING_STEP     0
MIN_SURFAREA         0.00000001
MAX_TRIALS           20
HEAD_TOLERANCE       0.00001
SYS_FLOW_TOL         5
LAT_FLOW_TOL         5
MINIMUM_STEP         2.0
THREADS              4

[EVAPORATION]
;;Data Source    Parameters
;;-------------- ----------------
CONSTANT         0.0
DRY_ONLY         NO

[JUNCTIONS]
;;Name           Elevation  MaxDepth   InitDepth  SurDepth   Aponded   
;;-------------- ---------- ---------- ---------- ---------- ----------
J1               0          0          0          0          0         
J2               -0.4       0          0          0          0         
J3               -0.8       0          0          0          0         
J4               -1.2       0          0          0          0         
J5               -1.6       0          0          0          0         
J6               -2         0          0          0          0         
J7               -2.4       0          0          0          0         
J8               -2.8       0          0          0          0         
J9               -3.2       0          0          0          0         
J10              -3.6       0          0          0          0         
J11              -4         0          0          0          0         
J12              -4.4       0          0          0          0         
J13              -4.8       0          0          0          0         
J14              -5.2       0          0          0          0         
J15              -5.6       0          0          0          0         
J16              -6         0          0          0          0         
J17              -6.4       0          0          0          0         
J18              -6.8       0          0          0          0         
J19              -7.2       0          0          0          0         
J20              -7.6       0          0          0          0         
J21              -8         0          0          0          0         
J22              -8.4       0          0          0          0         
J23              -8.8       0          0          0          0         
J24              -9.2       0          0          0          0         
J25              -9.6       0          0          0          0         
J26              -10        0          0          0          0         
J27              -10.4      0          0          0          0         
J28              -10.8      0          0          0          0         
J29              -11.2      0          0          0          0         
J30              -11.6      0          0          0          0         
J31              -12        0          0          0          0         
J32              -12.4      0          0          0          0         
J33              -12.8      0          0          0          0         
J34              -13.2      0          0          0          0         
J35              -13.6      0          0          0          0         
J36              -14        0          0          0          0         
J37              -14.4      0          0          0          0         
J38              -14.8      0          0          0          0         
J39              -15.2      0          0          0          0         
J40              -15.6      0          0          0          0         
J41              -16        0          0          0          0         
J42              -16.4      0          0          0          0         
J43              -16.8      0          0          0          0         
J44              -17.2      0          0          0          0         
J45              -17.6      0          0          0          0         
J46              -18        0          0          0          0         
J47              -18.4      0          0          0          0         
J48              -18.8      0          0          0          0         
J49              -19.2      0          0          0          0         
J50              -19.6      0          0          0          0         
J51              -20        0          0          0          0         
J52              -20.4      0          0          0          0         
J53              -20.8      0          0          0          0         
J54              -21.2      0          0          0          0         
J55              -21.6      0          0          0          0         
J56              -22        0          0          0          0         
J57              -22.4      0          0          0          0         
J58              -22.8      0          0          0          0         
J59              -23.2      0          0          0          0         
J60              -23.6      0          0          0          0         
J61              -24        0          0          0          0         
J62              -24.4      0          0          0          0         
J63              -24.8      0          0          0          0         
J64              -25.2      0          0          0          0         
J65              -25.6      0          0          0          0         
J66              -26        0          0          0          0         
J67              -26.4      0          0          0          0         
J68              -26.8      0          0          0          0         
J69              -27.2      0          0          0          0         
J70              -27.6      0          0          0          0         
J71              -28        0          0          0          0         
J72              -28.4      0          0          0          0         
J73              -28.8      0          0          0          0         
J74              -29.2      0          0          0          0         
J75              -29.6      0          0          0          0         
J76              -30        0          0          0          0         
J77              -30.4      0          0          0          0         
J78              -30.8      0          0          0          0         
J79              -31.2      0          0          0          0         
J80              -31.6      0          0          0          0         
J81              -32        0          0          0          0         
J82              -32.4      0          0          0          0         
J83              -32.8      0          0          0          0         
J84              -33.2      0          0          0          0         
J85              -33.6      0          0          0          0         
J86              -34        0          0          0          0         
J87              -34.4      0          0          0          0         
J88              -34.8      0          0          0          0         
J89              -35.2      0          0          0          0         
J90              -35.6      0          0          0          0         
J91              -36        0          0          0          0         
J92              -36.4      0          0          0          0         
J93              -36.8      0          0          0          0         
J94              -37.2      0          0          0          0         
J95              -37.6      0          0          0          0         
J96              -38        0          0          0          0         
J97              -38.4      0          0          0          0         
J98              -38.8      0          0          0          0         
J99              -39.2      0          0          0          0         
J100             -39.6      0          0          0          0         
J101             -40        0          0          0          0         
J102             -40.4      0          0          0          0         
J103             -40.8      0          0          0          0         
J104             -41.2      0          0          0          0         
J105             -41.6      0          0          0          0         
J106             -42        0          0          0          0         
J107             -42.4      0          0          0          0         
J108             -42.8      0          0          0          0         
J109             -43.2      0          0          0          0         
J110             -43.6      0          0          0          0         
J111             -44        0          0          0          0         
J112             -44.4      0          0          0          0         
J113             -44.8      0          0          0          0         
J114             -45.2      0          0          0          0         
J115             -45.6      0          0          0          0         
J116             -46        0          0          0          0         
J117             -46.4      0          0          0          0         
J118             -46.8      0          0          0          0         
J119             -47.2      0          0          0          0         
J120             -47.6      0          0          0          0         
J121             -48        0          0          0          0         
J122             -48.4      0          0          0          0         
J123             -48.8      0          0          0          0         
J124             -49.2      0          0          0          0         
J125             -49.6      0          0          0          0         
J126             -50        0          0          0          0         
J127             -50.4      0          0          0          0         
J128             -50.8      0          0          0          0         
J129             -51.2      0          0          0          0         
J130             -51.6      0          0          0          0         
J131             -52        0          0          0          0         

[OUTFALLS]
;;Name           Elevation  Type       Stage Data       Gated    Route To        
;;-------------- ---------- ---------- ---------------- -------- ----------------
J132             -52.4      NORMAL                      NO                       

[CONDUITS]
;;Name           From Node        To Node          Length     Roughness  InOffset   OutOffset  InitFlow   MaxFlow   
;;-------------- ---------------- ---------------- ---------- ---------- ---------- ---------- ---------- ----------
E1               J1               J2               100        0.0642     0          0          0.580847    0         
E2               J2               J3               100        0.0642     0          0          0.580847    0         
E3               J3               J4               100        0.0642     0          0          0.580847    0         
E4               J4               J5               100        0.0642     0          0          0.580847    0         
E5               J5               J6               100        0.0642     0          0          0.580847    0         
E6               J6               J7               100        0.0642     0          0          0.580847    0         
E7               J7               J8               100        0.0642     0          0          0.580847    0         
E8               J8               J9               100        0.0642     0          0          0.580847    0         
E9               J9               J10              100        0.0642     0          0          0.580847    0         
E10              J10              J11              100        0.0642     0          0          0.580847    0         
E11              J11              J12              100        0.0642     0          0          0.580847    0         
E12              J12              J13              100        0.0642     0          0          0.580847    0         
E13              J13              J14              100        0.0642     0          0          0.580847    0         
E14              J14              J15              100        0.0642     0          0          0.580847    0         
E15              J15              J16              100        0.0642     0          0          0.580847    0         
E16              J16              J17              100        0.0642     0          0          0.580847    0         
E17              J17              J18              100        0.0642     0          0          0.580847    0         
E18              J18              J19              100        0.0642     0          0          0.580847    0         
E19              J19              J20              100        0.0642     0          0          0.580847    0         
E20              J20              J21              100        0.0642     0          0          0.580847    0         
E21              J21              J22              100        0.0642     0          0          0.580847    0         
E22              J22              J23              100        0.0642     0          0          0.580847    0         
E23              J23              J24              100        0.0642     0          0          0.580847    0         
E24              J24              J25              100        0.0642     0          0          0.580847    0         
E25              J25              J26              100        0.0642     0          0          0.580847    0         
E26              J26              J27              100        0.0642     0          0          0.580847    0         
E27              J27              J28              100        0.0642     0          0          0.580847    0         
E28              J28              J29              100        0.0642     0          0          0.580847    0         
E29              J29              J30              100        0.0642     0          0          0.580847    0         
E30              J30              J31              100        0.0642     0          0          0.580847    0         
E31              J31              J32              100        0.0642     0          0          0.580847    0         
E32              J32              J33              100        0.0642     0          0          0.580847    0         
E33              J33              J34              100        0.0642     0          0          0.580847    0         
E34              J34              J35              100        0.0642     0          0          0.580847    0         
E35              J35              J36              100        0.0642     0          0          0.580847    0         
E36              J36              J37              100        0.0642     0          0          0.580847    0         
E37              J37              J38              100        0.0642     0          0          0.580847    0         
E38              J38              J39              100        0.0642     0          0          0.580847    0         
E39              J39              J40              100        0.0642     0          0          0.580847    0         
E40              J40              J41              100        0.0642     0          0          0.580847    0         
E41              J41              J42              100        0.0642     0          0          0.580847    0         
E42              J42              J43              100        0.0642     0          0          0.580847    0         
E43              J43              J44              100        0.0642     0          0          0.580847    0         
E44              J44              J45              100        0.0642     0          0          0.580847    0         
E45              J45              J46              100        0.0642     0          0          0.580847    0         
E46              J46              J47              100        0.0642     0          0          0.580847    0         
E47              J47              J48              100        0.0642     0          0          0.580847    0         
E48              J48              J49              100        0.0642     0          0          0.580847    0         
E49              J49              J50              100        0.0642     0          0          0.580847    0         
E50              J50              J51              100        0.0642     0          0          0.580847    0         
E51              J51              J52              100        0.0642     0          0          0.580847    0         
E52              J52              J53              100        0.0642     0          0          0.580847    0         
E53              J53              J54              100        0.0642     0          0          0.580847    0         
E54              J54              J55              100        0.0642     0          0          0.580847    0         
E55              J55              J56              100        0.0642     0          0          0.580847    0         
E56              J56              J57              100        0.0642     0          0          0.580847    0         
E57              J57              J58              100        0.0642     0          0          0.580847    0         
E58              J58              J59              100        0.0642     0          0          0.580847    0         
E59              J59              J60              100        0.0642     0          0          0.580847    0         
E60              J60              J61              100        0.0642     0          0          0.580847    0         
E61              J61              J62              100        0.0642     0          0          0.580847    0         
E62              J62              J63              100        0.0642     0          0          0.580847    0         
E63              J63              J64              100        0.0642     0          0          0.580847    0         
E64              J64              J65              100        0.0642     0          0          0.580847    0         
E65              J65              J66              100        0.0642     0          0          0.580847    0         
E66              J66              J67              100        0.0642     0          0          0.580847    0         
E67              J67              J68              100        0.0642     0          0          0.580847    0         
E68              J68              J69              100        0.0642     0          0          0.580847    0         
E69              J69              J70              100        0.0642     0          0          0.580847    0         
E70              J70              J71              100        0.0642     0          0          0.580847    0         
E71              J71              J72              100        0.0642     0          0          0.580847    0         
E72              J72              J73              100        0.0642     0          0          0.580847    0         
E73              J73              J74              100        0.0642     0          0          0.580847    0         
E74              J74              J75              100        0.0642     0          0          0.580847    0         
E75              J75              J76              100        0.0642     0          0          0.580847    0         
E76              J76              J77              100        0.0642     0          0          0.580847    0         
E77              J77              J78              100        0.0642     0          0          0.580847    0         
E78              J78              J79              100        0.0642     0          0          0.580847    0         
E79              J79              J80              100        0.0642     0          0          0.580847    0         
E80              J80              J81              100        0.0642     0          0          0.580847    0         
E81              J81              J82              100        0.0642     0          0          0.580847    0         
E82              J82              J83              100        0.0642     0          0          0.580847    0         
E83              J83              J84              100        0.0642     0          0          0.580847    0         
E84              J84              J85              100        0.0642     0          0          0.580847    0         
E85              J85              J86              100        0.0642     0          0          0.580847    0         
E86              J86              J87              100        0.0642     0          0          0.580847    0         
E87              J87              J88              100        0.0642     0          0          0.580847    0         
E88              J88              J89              100        0.0642     0          0          0.580847    0         
E89              J89              J90              100        0.0642     0          0          0.580847    0         
E90              J90              J91              100        0.0642     0          0          0.580847    0         
E91              J91              J92              100        0.0642     0          0          0.580847    0         
E92              J92              J93              100        0.0642     0          0          0.580847    0         
E93              J93              J94              100        0.0642     0          0          0.580847    0         
E94              J94              J95              100        0.0642     0          0          0.580847    0         
E95              J95              J96              100        0.0642     0          0          0.580847    0         
E96              J96              J97              100        0.0642     0          0          0.580847    0         
E97              J97              J98              100        0.0642     0          0          0.580847    0         
E98              J98              J99              100        0.0642     0          0          0.580847    0         
E99              J99              J100             100        0.0642     0          0          0.580847    0         
E100             J100             J101             100        0.0642     0          0          0.580847    0         
E101             J101             J102             100        0.0642     0          0          0.580847    0         
E102             J102             J103             100        0.0642     0          0          0.580847    0         
E103             J103             J104             100        0.0642     0          0          0.580847    0         
E104             J104             J105             100        0.0642     0          0          0.580847    0         
E105             J105             J106             100        0.0642     0          0          0.580847    0         
E106             J106             J107             100        0.0642     0          0          0.580847    0         
E107             J107             J108             100        0.0642     0          0          0.580847    0         
E108             J108             J109             100        0.0642     0          0          0.580847    0         
E109             J109             J110             100        0.0642     0          0          0.580847    0         
E110             J110             J111             100        0.0642     0          0          0.580847    0         
E111             J111             J112             100        0.0642     0          0          0.580847    0         
E112             J112             J113             100        0.0642     0          0          0.580847    0         
E113             J113             J114             100        0.0642     0          0          0.580847    0         
E114             J114             J115             100        0.0642     0          0          0.580847    0         
E115             J115             J116             100        0.0642     0          0          0.580847    0         
E116             J116             J117             100        0.0642     0          0          0.580847    0         
E117             J117             J118             100        0.0642     0          0          0.580847    0         
E118             J118             J119             100        0.0642     0          0          0.580847    0         
E119             J119             J120             100        0.0642     0          0          0.580847    0         
E120             J120             J121             100        0.0642     0          0          0.580847    0         
E121             J121             J122             100        0.0642     0          0          0.580847    0         
E122             J122             J123             100        0.0642     0          0          0.580847    0         
E123             J123             J124             100        0.0642     0          0          0.580847    0         
E124             J124             J125             100        0.0642     0          0          0.580847    0         
E125             J125             J126             100        0.0642     0          0          0.580847    0         
E126             J126             J127             100        0.0642     0          0          0.580847    0         
E127             J127             J128             100        0.0642     0          0          0.580847    0         
E128             J128             J129             100        0.0642     0          0          0.580847    0         
E129             J129             J130             100        0.0642     0          0          0.580847    0         
E130             J130             J131             100        0.0642     0          0          0.580847    0         
E131             J131             J132             100        0.0642     0          0          0.580847    0         

[XSECTIONS]
;;Link           Shape        Geom1            Geom2      Geom3      Geom4      Barrels    Culvert   
;;-------------- ------------ ---------------- ---------- ---------- ---------- ---------- ----------
E1               RECT_OPEN    1                12.3000   0          0          1                    
E2               RECT_OPEN    1                12.3000   0          0          1                    
E3               RECT_OPEN    1                12.3000   0          0          1                    
E4               RECT_OPEN    1                12.3000   0          0          1                    
E5               RECT_OPEN    1                12.3000   0          0          1                    
E6               RECT_OPEN    1                12.3000   0          0          1                    
E7               RECT_OPEN    1                12.3000   0          0          1                    
E8               RECT_OPEN    1                12.3000   0          0          1                    
E9               RECT_OPEN    1                12.3000   0          0          1                    
E10              RECT_OPEN    1                12.3000   0          0          1                    
E11              RECT_OPEN    1                12.3000   0          0          1                    
E12              RECT_OPEN    1                12.3000   0          0          1                    
E13              RECT_OPEN    1                12.3000   0          0          1                    
E14              RECT_OPEN    1                12.3000   0          0          1                    
E15              RECT_OPEN    1                12.3000   0          0          1                    
E16              RECT_OPEN    1                12.3000   0          0          1                    
E17              RECT_OPEN    1                12.3000   0          0          1                    
E18              RECT_OPEN    1                12.3000   0          0          1                    
E19              RECT_OPEN    1                12.3000   0          0          1                    
E20              RECT_OPEN    1                12.3000   0          0          1                    
E21              RECT_OPEN    1                12.3000   0          0          1                    
E22              RECT_OPEN    1                12.3000   0          0          1                    
E23              RECT_OPEN    1                12.3000   0          0          1                    
E24              RECT_OPEN    1                12.3000   0          0          1                    
E25              RECT_OPEN    1                12.3000   0          0          1                    
E26              RECT_OPEN    1                12.3000   0          0          1                    
E27              RECT_OPEN    1                12.3000   0          0          1                    