[TITLE]
;;Project Title/Notes

[OPTIONS]
;;Option             Value
FLOW_UNITS           CMS
INFILTRATION         HORTON
FLOW_ROUTING         DYNWAVE
LINK_OFFSETS         DEPTH
MIN_SLOPE            0
ALLOW_PONDING        YES
SKIP_STEADY_STATE    NO

START_DATE           02/03/2017
START_TIME           00:00:00
REPORT_START_DATE    02/03/2017
REPORT_START_TIME    00:00:00
END_DATE             02/03/2017
END_TIME             10:00:00
SWEEP_START          01/01
SWEEP_END            12/31
DRY_DAYS             0
REPORT_STEP          00:10:00
WET_STEP             00:05:00
DRY_STEP             01:00:00
ROUTING_STEP         0:00:05 

INERTIAL_DAMPING     NONE
NORMAL_FLOW_LIMITED  BOTH
FORCE_MAIN_EQUATION  H-W
VARIABLE_STEP        0.75
LENGTHENING_STEP     0
MIN_SURFAREA         1.14
MAX_TRIALS           8
HEAD_TOLERANCE       0.0015
SYS_FLOW_TOL         5
LAT_FLOW_TOL         5
MINIMUM_STEP         0.5
THREADS              2

[EVAPORATION]
;;Data Source    Parameters
;;-------------- ----------------
CONSTANT         0.0
DRY_ONLY         NO

[JUNCTIONS]
;;Name           Elevation  MaxDepth   InitDepth  SurDepth   Aponded   
;;-------------- ---------- ---------- ---------- ---------- ----------
j1               -1         1          0          0          12.5      
j2               -1.25      1.25       0          0          12.5      

[OUTFALLS]
;;Name           Elevation  Type       Stage Data       Gated    Route To        
;;-------------- ---------- ---------- ---------------- -------- ----------------
o1               -1.5       FREE                        NO                       

[CONDUITS]
;;Name           From Node        To Node          Length     Roughness  InOffset   OutOffset  InitFlow   MaxFlow   
;;-------------- ---------------- ---------------- ---------- ---------- ---------- ---------- ---------- ----------
l1               j1               j2               55.83455969 0.03       0          0          0          0         
l2               j2               o1               40.00947   0.03       0          0          0          0         

[XSECTIONS]
;;Link           Shape        Geom1            Geom2      Geom3      Geom4      Barrels    Culvert   
;;-------------- ------------ ---------------- ---------- ---------- ---------- ---------- ----------
l1               RECT_OPEN    0.5              1          0          0          1                    
l2               RECT_OPEN    0.5              1          0          0          1                    

[INFLOWS]
;;Node           Constituent      Time Series      Type     Mfactor  Sfactor  Baseline Pattern
;;-------------- ---------------- ---------------- -------- -------- -------- -------- --------
j1               FLOW             inflow           FLOW     1.0      0.15             

[TIMESERIES]
;;Name           Date       Time       Value     
;;-------------- ---------- ---------- ----------
inflow           2/3/2017   0:0        0.0       
inflow           2/3/2017   1:0        2.5       
inflow           2/3/2017   2:0        5.0       
inflow           2/3/2017   6:0        5.0       
inflow           2/3/2017   7:0        2.5       
inflow           2/3/2017   8:0        0.0       

[REPORT]
;;Reporting Options
INPUT      YES
CONTROLS   NO
SUBCATCHMENTS ALL
NODES ALL
LINKS ALL

[TAGS]

[MAP]
DIMENSIONS -2.708 52.042 102.708 52.958
Units      Meters

[COORDINATES]
;;Node           X-Coord            Y-Coord           
;;-------------- ------------------ ------------------
j1               1.947              51.974            
j2               57.917             52.083            
o1               100.917             52.917            

[VERTICES]
;;Link           X-Coord            Y-Coord           
;;-------------- ------------------ ------------------

