[TITLE]
;;Project Title/Notes

[OPTIONS]
;;Option             Value
FLOW_UNITS           CMS
INFILTRATION         HORTON
FLOW_ROUTING         DYNWAVE
LINK_OFFSETS         DEPTH
MIN_SLOPE            0
ALLOW_PONDING        YES
SKIP_STEADY_STATE    NO

START_DATE           02/03/2017
START_TIME           00:00:00
REPORT_START_DATE    02/03/2017
REPORT_START_TIME    00:00:00
END_DATE             02/03/2017
END_TIME             10:00:00
SWEEP_START          01/01
SWEEP_END            12/31
DRY_DAYS             0
REPORT_STEP          00:10:00
WET_STEP             00:05:00
DRY_STEP             01:00:00
ROUTING_STEP         0:00:05 

INERTIAL_DAMPING     NONE
NORMAL_FLOW_LIMITED  BOTH
FORCE_MAIN_EQUATION  H-W
VARIABLE_STEP        0.75
LENGTHENING_STEP     0
MIN_SURFAREA         1.14
MAX_TRIALS           8
HEAD_TOLERANCE       0.0015
SYS_FLOW_TOL         5
LAT_FLOW_TOL         5
MINIMUM_STEP         0.5
THREADS              1

[EVAPORATION]
;;Data Source    Parameters
;;-------------- ----------------
CONSTANT         0.0
DRY_ONLY         NO

[JUNCTIONS]
;;Name           Elevation  MaxDepth   InitDepth  SurDepth   Aponded   
;;-------------- ---------- ---------- ---------- ---------- ----------
j1               -1.0000    1.000      0          0          12.5      
j2               -1.0132    1.013      0          0          12.5     
j3               -1.0263    1.026      0          0          12.5     
j4               -1.0395    1.039      0          0          12.5     
j5               -1.0526    1.053      0          0          12.5     
j6               -1.0658    1.066      0          0          12.5     
j7               -1.0789    1.079      0          0          12.5     
j8               -1.0921    1.092      0          0          12.5     
j9               -1.1053    1.105      0          0          12.5     
j10              -1.1184    1.118      0          0          12.5     
j11              -1.1316    1.132      0          0          12.5     
j12              -1.1447    1.145      0          0          12.5     
j13              -1.1579    1.158      0          0          12.5     
j14              -1.1711    1.171      0          0          12.5     
j15              -1.1842    1.184      0          0          12.5     
j16              -1.1974    1.197      0          0          12.5     
j17              -1.2105    1.211      0          0          12.5     
j18              -1.2237    1.224      0          0          12.5     
j19              -1.2368    1.237      0          0          12.5     
j20              -1.2500    1.250      0          0          12.5     
j21              -1.2625    1.263      0          0          12.5     
j22              -1.2750    1.275      0          0          12.5     
j23              -1.2875    1.288      0          0          12.5     
j24              -1.3000    1.300      0          0          12.5     
j25              -1.3125    1.313      0          0          12.5     
j26              -1.3250    1.325      0          0          12.5     
j27              -1.3375    1.338      0          0          12.5     
j28              -1.3500    1.350      0          0          12.5     
j29              -1.3625    1.363      0          0          12.5     
j30              -1.3750    1.375      0          0          12.5     
j31              -1.3875    1.388      0          0          12.5     
j32              -1.4000    1.400      0          0          12.5     
j33              -1.4125    1.413      0          0          12.5     
j34              -1.4250    1.425      0          0          12.5     
j35              -1.4375    1.438      0          0          12.5     
j36              -1.4500    1.450      0          0          12.5     
j37              -1.4625    1.463      0          0          12.5     
j38              -1.4750    1.475      0          0          12.5     
j39              -1.4875    1.488      0          0          12.5     
 

[OUTFALLS]
;;Name           Elevation  Type       Stage Data       Gated    Route To        
;;-------------- ---------- ---------- ---------------- -------- ----------------
o1               -1.5       FREE                        NO                       

[CONDUITS]
;;Name           From Node        To Node          Length     Roughness  InOffset   OutOffset  InitFlow   MaxFlow   
;;-------------- ---------------- ---------------- ---------- ---------- ---------- ---------- ---------- ----------
l1               j1               j2               2.9458     0.03       0          0          0          0         
l2               j2               j3               2.9458     0.03       0          0          0          0         
l3               j3               j4               2.9458     0.03       0          0          0          0         
l4               j4               j5               2.9458     0.03       0          0          0          0         
l5               j5               j6               2.9458     0.03       0          0          0          0         
l6               j6               j7               2.9458     0.03       0          0          0          0         
l7               j7               j8               2.9458     0.03       0          0          0          0         
l8               j8               j9               2.9458     0.03       0          0          0          0         
l9               j9               j10              2.9458     0.03       0          0          0          0         
l10              j10              j11              2.9458     0.03       0          0          0          0         
l11              j11              j12              2.9458     0.03       0          0          0          0         
l12              j12              j13              2.9458     0.03       0          0          0          0         
l13              j13              j14              2.9458     0.03       0          0          0          0         
l14              j14              j15              2.9458     0.03       0          0          0          0         
l15              j15              j16              2.9458     0.03       0          0          0          0         
l16              j16              j17              2.9458     0.03       0          0          0          0         
l17              j17              j18              2.9458     0.03       0          0          0          0         
l18              j18              j19              2.9458     0.03       0          0          0          0         
l19              j19              j20              2.9458     0.03       0          0          0          0         
l20              j20              j21              2.1504     0.03       0          0          0          0         
l21              j21              j22              2.1504     0.03       0          0          0          0         
l22              j22              j23              2.1504     0.03       0          0          0          0         
l23              j23              j24              2.1504     0.03       0          0          0          0         
l24              j24              j25              2.1504     0.03       0          0          0          0         
l25              j25              j26              2.1504     0.03       0          0          0          0         
l26              j26              j27              2.1504     0.03       0          0          0          0         
l27              j27              j28              2.1504     0.03       0          0          0          0         
l28              j28              j29              2.1504     0.03       0          0          0          0         
l29              j29              j30              2.1504     0.03       0          0          0          0         
l30              j30              j31              2.1504     0.03       0          0          0          0         
l31              j31              j32              2.1504     0.03       0          0          0          0         
l32              j32              j33              2.1504     0.03       0          0          0          0         
l33              j33              j34              2.1504     0.03       0          0          0          0         
l34              j34              j35              2.1504     0.03       0          0          0          0         
l35              j35              j36              2.1504     0.03       0          0          0          0         
l36              j36              j37              2.1504     0.03       0          0          0          0         
l37              j37              j38              2.1504     0.03       0          0          0          0         
l38              j38              j39              2.1504     0.03       0          0          0          0         
l39              j39              o1               2.1504     0.03       0          0          0          0       

[XSECTIONS]
;;Link           Shape        Geom1            Geom2      Geom3      Geom4      Barrels    Culvert   
;;-------------- ------------ ---------------- ---------- ---------- ---------- ---------- ----------
l1               RECT_OPEN    0.5              1          0          0          1                    
l2               RECT_OPEN    0.5              1          0          0          1                    
l3               RECT_OPEN    0.5              1          0          0          1                    
l4               RECT_OPEN    0.5              1          0          0          1                    
l5               RECT_OPEN    0.5              1          0          0          1                    
l6               RECT_OPEN    0.5              1          0          0          1                    
l7               RECT_OPEN    0.5              1          0          0          1                    
l8               RECT_OPEN    0.5              1          0          0          1                    
l9               RECT_OPEN    0.5              1          0          0          1                    
l10              RECT_OPEN    0.5              1          0          0          1                    
l11              RECT_OPEN    0.5              1          0          0          1                    
l12              RECT_OPEN    0.5              1          0          0          1                    
l13              RECT_OPEN    0.5              1          0          0          1                    
l14              RECT_OPEN    0.5              1          0          0          1                    
l15              RECT_OPEN    0.5              1          0          0          1                    
l16              RECT_OPEN    0.5              1          0          0          1                    
l17              RECT_OPEN    0.5              1          0          0          1                    
l18              RECT_OPEN    0.5              1          0          0          1                    
l19              RECT_OPEN    0.5              1          0          0          1                    
l20              RECT_OPEN    0.5              1          0          0          1                    
l21              RECT_OPEN    0.5              1          0          0          1                    
l22              RECT_OPEN    0.5              1          0          0          1                    
l23              RECT_OPEN    0.5              1          0          0          1                    
l24              RECT_OPEN    0.5              1          0          0          1                    
l25              RECT_OPEN    0.5              1          0          0          1                    
l26              RECT_OPEN    0.5              1          0          0          1                    
l27              RECT_OPEN    0.5              1          0          0          1                    
l28              RECT_OPEN    0.5              1          0          0          1                    
l29              RECT_OPEN    0.5              1          0          0          1                    
l30              RECT_OPEN    0.5              1          0          0          1                    
l31              RECT_OPEN    0.5              1          0          0          1                    
l32              RECT_OPEN    0.5              1          0          0          1                    
l33              RECT_OPEN    0.5              1          0          0          1                    
l34              RECT_OPEN    0.5              1          0          0          1                    
l35              RECT_OPEN    0.5              1          0          0          1                    
l36              RECT_OPEN    0.5              1          0          0          1                    
l37              RECT_OPEN    0.5              1          0          0          1                    
l38              RECT_OPEN    0.5              1          0          0          1                    
l39              RECT_OPEN    0.5              1          0          0          1                    

[INFLOWS]
;;Node           Constituent      Time Series      Type     Mfactor  Sfactor  Baseline Pattern
;;-------------- ---------------- ---------------- -------- -------- -------- -------- --------
j1               FLOW             inflow           FLOW     1.0      0.15             

[TIMESERIES]
;;Name           Date       Time       Value     
;;-------------- ---------- ---------- ----------
inflow           2/3/2017   0:0        0.0       
inflow           2/3/2017   1:0        2.5       
inflow           2/3/2017   2:0        5.0       
inflow           2/3/2017   6:0        5.0       
inflow           2/3/2017   7:0        2.5       
inflow           2/3/2017   8:0        0.0       

[REPORT]
;;Reporting Options
INPUT      YES
CONTROLS   NO
SUBCATCHMENTS ALL
NODES ALL
LINKS ALL

[TAGS]

[MAP]
DIMENSIONS -2.708 52.042 102.708 52.958
Units      Meters

[COORDINATES]
;;Node           X-Coord            Y-Coord           
;;-------------- ------------------ ------------------
j1               1.9470             51.9740            
j2               4.8928             51.9797            
j3               7.8386             51.9855            
j4               10.7844            51.9912            
j5               13.7302            51.9969            
j6               16.6759            52.0027            
j7               19.6217            52.0084            
j8               22.5675            52.0142            
j9               25.5133            52.0199            
j10              28.4591            52.0256            
j11              31.4049            52.0314            
j12              34.3507            52.0371            
j13              37.2965            52.0428            
j14              40.2423            52.0486            
j15              43.1881            52.0543            
j16              46.1338            52.0601            
j17              49.0796            52.0658            
j18              52.0254            52.0715            
j19              54.9712            52.0773            
j20              57.9170            52.0830            
j21              60.0670            52.1247            
j22              62.2170            52.1664            
j23              64.3670            52.2081            
j24              66.5170            52.2498            
j25              68.6670            52.2915            
j26              70.8170            52.3332            
j27              72.9670            52.3749            
j28              75.1170            52.4166            
j29              77.2670            52.4583            
j30              79.4170            52.5000            
j31              81.5670            52.5417            
j32              83.7170            52.5834            
j33              85.8670            52.6251            
j34              88.0170            52.6668            
j35              90.1670            52.7085            
j36              92.3170            52.7502            
j37              94.4670            52.7919            
j38              96.6170            52.8336            
j39              98.7670            52.8753            
o1               100.9170           52.9170            

[VERTICES]
;;Link           X-Coord            Y-Coord           
;;-------------- ------------------ ------------------

