[TITLE]
;;Project Title/Notes
TEST1
FLAT SLOPE EXAMPLE

[OPTIONS]
;;Option             Value
FLOW_UNITS           CFS
INFILTRATION         HORTON
FLOW_ROUTING         DYNWAVE
LINK_OFFSETS         DEPTH
MIN_SLOPE            0
ALLOW_PONDING        NO
SKIP_STEADY_STATE    NO

START_DATE           02/02/2002
START_TIME           00:00:00
REPORT_START_DATE    02/02/2002
REPORT_START_TIME    00:00:00
END_DATE             02/02/2002
END_TIME             05:00:00
SWEEP_START          01/01
SWEEP_END            12/31
DRY_DAYS             0
REPORT_STEP          00:00:30
WET_STEP             00:15:00
DRY_STEP             01:00:00
ROUTING_STEP         0:00:05 

INERTIAL_DAMPING     NONE
NORMAL_FLOW_LIMITED  FROUDE
FORCE_MAIN_EQUATION  H-W
VARIABLE_STEP        0.00
LENGTHENING_STEP     0
MIN_SURFAREA         0
MAX_TRIALS           0
HEAD_TOLERANCE       0
SYS_FLOW_TOL         5
LAT_FLOW_TOL         5
MINIMUM_STEP         0.5
THREADS              1

[EVAPORATION]
;;Data Source    Parameters
;;-------------- ----------------
CONSTANT         0.0
DRY_ONLY         NO

[JUNCTIONS]
;;Name           Elevation  MaxDepth   InitDepth  SurDepth   Aponded   
;;-------------- ---------- ---------- ---------- ---------- ----------
0                10.00      10.00      .00        .00        0         
1                10.00      10.00      .00        .00        0         
2                10.00      10.00      .00        .00        0         
3                10.00      10.00      .00        .00        0         
4                10.00      10.00      .00        .00        0         
5                10.00      10.00      .00        .00        0         
6                10.00      10.00      .00        .00        0         
7                10.00      10.00      .00        .00        0         
8                10.00      10.00      .00        .00        0         
9                10.00      10.00      .00        .00        0         

[OUTFALLS]
;;Name           Elevation  Type       Stage Data       Gated    Route To        
;;-------------- ---------- ---------- ---------------- -------- ----------------
10               10         FREE                        NO                       

[CONDUITS]
;;Name           From Node        To Node          Length     Roughness  InOffset   OutOffset  InitFlow   MaxFlow   
;;-------------- ---------------- ---------------- ---------- ---------- ---------- ---------- ---------- ----------
;#PRINT
1                0                1                100        0.011      0          0          0          0         
2                1                2                100        0.011      0          0          0          0         
3                2                3                100        0.011      0          0          0          0         
4                3                4                100        0.011      0          0          0          0         
5                4                5                100        0.011      0          0          0          0         
6                5                6                100        0.011      0          0          0          0         
7                6                7                100        0.011      0          0          0          0         
8                7                8                100        0.011      0          0          0          0         
9                8                9                100        0.011      0          0          0          0         
10               9                10               100        0.011      0          0          0          0         

[XSECTIONS]
;;Link           Shape        Geom1            Geom2      Geom3      Geom4      Barrels    Culvert   
;;-------------- ------------ ---------------- ---------- ---------- ---------- ---------- ----------
1                CIRCULAR     4                0          0          0          1                    
2                CIRCULAR     4                0          0          0          1                    
3                CIRCULAR     4                0          0          0          1                    
4                CIRCULAR     4                0          0          0          1                    
5                CIRCULAR     4                0          0          0          1                    
6                CIRCULAR     4                0          0          0          1                    
7                CIRCULAR     4                0          0          0          1                    
8                CIRCULAR     4                0          0          0          1                    
9                CIRCULAR     4                0          0          0          1                    
10               CIRCULAR     4                0          0          0          1                    

[INFLOWS]
;;Node           Constituent      Time Series      Type     Mfactor  Sfactor  Baseline Pattern
;;-------------- ---------------- ---------------- -------- -------- -------- -------- --------
0                FLOW             1                FLOW     1.0      1.0              

[TIMESERIES]
;;Name           Date       Time       Value     
;;-------------- ---------- ---------- ----------
;-------------------------------------------------
1                02/02/2002 0:0        0.0       
1                02/02/2002 0:15       100.00000 
1                02/02/2002 3:00       100.00000 
1                02/02/2002 3:15       0.00000   
1                02/02/2002 12:00      0.00000   

[REPORT]
;;Reporting Options
INPUT      NO
CONTROLS   NO
SUBCATCHMENTS ALL
NODES ALL
LINKS ALL

[TAGS]

[MAP]
DIMENSIONS 35.000 35.000 145.000 145.000
Units      None

[COORDINATES]
;;Node           X-Coord            Y-Coord           
;;-------------- ------------------ ------------------
0                40.000             40.000            
1                50.000             50.000            
2                60.000             60.000            
3                70.000             70.000            
4                80.000             80.000            
5                90.000             90.000            
6                100.000            100.000           
7                110.000            110.000           
8                120.000            120.000           
9                130.000            130.000           
10               140.000            140.000           

[VERTICES]
;;Link           X-Coord            Y-Coord           
;;-------------- ------------------ ------------------

